@<TRIPOS>MOLECULE
NIL
   61    65     1     0     0
SMALL
bcc


@<TRIPOS>ATOM
      1 O17         27.4370     2.8950    51.2430 o        600 NIL      -0.565100
      2 C16         27.1160     2.6680    52.3840 c        600 NIL       0.687700
      3 N14         26.0130     3.0980    53.0150 ns       600 NIL      -0.474100
      4 C11         25.1140     4.0420    52.5350 ca       600 NIL       0.100600
      5 C9          24.3180     4.8060    53.4240 ca       600 NIL      -0.190000
      6 C8          23.4180     5.7650    52.9510 ca       600 NIL       0.050800
      7 N51         22.6560     6.5560    53.8240 na       600 NIL      -0.151000
      8 C56         22.3140     6.3130    55.1530 cc       600 NIL      -0.249600
      9 C55         21.4970     7.3060    55.5670 cd       600 NIL       0.316600
     10 C58         20.8800     7.4930    56.9320 c3       600 NIL      -0.116400
     11 N54         21.3460     8.1740    54.5420 nd       600 NIL      -0.656000
     12 C52         22.0110     7.6890    53.5220 cc       600 NIL       0.414400
     13 C6          23.2420     5.9220    51.5800 ca       600 NIL      -0.141000
     14 C12         24.8860     4.1760    51.1480 ca       600 NIL      -0.127000
     15 C5          23.9850     5.1690    50.6680 ca       600 NIL      -0.116300
     16 C2          23.8080     5.3300    49.1930 c3       600 NIL       0.687200
     17 F4          23.7250     4.1770    48.5000 f        600 NIL      -0.232633
     18 F3          22.6440     5.9040    48.9120 f        600 NIL      -0.232633
     19 F1          24.8490     5.9670    48.6180 f        600 NIL      -0.232633
     20 C18         27.8680     1.5870    53.0510 ca       600 NIL      -0.147600
     21 C25         27.5140     1.0020    54.2760 ca       600 NIL      -0.112000
     22 C23         28.2050    -0.1000    54.7820 ca       600 NIL      -0.124000
     23 C22         29.2140    -0.7110    54.0550 ca       600 NIL      -0.082300
     24 C27         29.9540    -1.9170    54.6160 c3       600 NIL      -0.066800
     25 C21         29.5010    -0.1980    52.7910 ca       600 NIL       0.127600
     26 C19         28.8130     0.9240    52.3120 ca       600 NIL      -0.050000
     27 N31         30.6200    -0.6930    52.1090 nu       600 NIL      -0.709300
     28 C33         31.8450    -0.0340    52.2300 ca       600 NIL       0.870900
     29 N40         32.1570     1.0110    52.9860 nb       600 NIL      -0.734000
     30 C38         33.4140     1.4820    52.8790 ca       600 NIL       0.463200
     31 C36         34.3070     0.9710    52.0170 ca       600 NIL      -0.404600
     32 C35         33.9360    -0.0810    51.2560 cp       600 NIL       0.539800
     33 N34         32.7080    -0.6040    51.3500 nb       600 NIL      -0.744000
     34 C41         34.8530    -0.7620    50.3050 cp       600 NIL      -0.279800
     35 C49         36.1840    -0.3460    50.1410 ca       600 NIL      -0.071000
     36 C47         36.9880    -1.0040    49.2190 ca       600 NIL      -0.253300
     37 C45         36.4440    -2.0750    48.5110 ca       600 NIL       0.409200
     38 N44         35.1680    -2.4770    48.6290 nb       600 NIL      -0.668000
     39 C42         34.4000    -1.8440    49.5250 ca       600 NIL       0.440200
     40 HN31        30.5530    -1.3970    51.6200 hn       600 NIL       0.444800
     41 HN14        25.8470     2.7580    53.7870 hn       600 NIL       0.323500
     42 H58B        20.7560     8.4390    57.1050 hc       600 NIL       0.049033
     43 H58A        20.0210     7.0440    56.9630 hc       600 NIL       0.049033
     44 H27B        29.9770    -1.8610    55.5840 hc       600 NIL       0.052700
     45 H27A        29.4970    -2.7300    54.3500 hc       600 NIL       0.052700
     46 H9          24.3990     4.6610    54.3800 ha       600 NIL       0.146000
     47 H6          22.5930     6.5640    51.2520 ha       600 NIL       0.162000
     48 H58         21.4660     7.1160    57.6070 hc       600 NIL       0.049033
     49 H56         22.6110     5.5610    55.6880 h4       600 NIL       0.178000
     50 H52         22.0330     8.1050    52.6460 h5       600 NIL       0.068100
     51 H49         36.5370     0.3910    50.6640 ha       600 NIL       0.143000
     52 H47         37.9050    -0.7250    49.0710 ha       600 NIL       0.147000
     53 H45         37.0200    -2.5580    47.8980 h4       600 NIL       0.026100
     54 H42         33.4860    -2.1460    49.6430 h4       600 NIL       0.041100
     55 H38         33.6850     2.2200    53.4470 h4       600 NIL       0.031100
     56 H36         35.1970     1.3480    51.9420 ha       600 NIL       0.158000
     57 H27         30.8610    -1.9290    54.2720 hc       600 NIL       0.052700
     58 H25         26.7730     1.3710    54.7820 ha       600 NIL       0.139000
     59 H23         27.9750    -0.4450    55.6590 ha       600 NIL       0.141000
     60 H19         29.0140     1.2460    51.4190 ha       600 NIL       0.175000
     61 H12         25.3430     3.5920    50.5220 ha       600 NIL       0.196000
@<TRIPOS>BOND
     1     1     2 2   
     2     2     3 1   
     3     2    20 1   
     4     3     4 1   
     5     3    41 1   
     6     4     5 ar  
     7     4    14 ar  
     8     5     6 ar  
     9     5    46 1   
    10     6     7 1   
    11     6    13 ar  
    12     7     8 1   
    13     7    12 1   
    14     8     9 2   
    15     8    49 1   
    16     9    10 1   
    17     9    11 1   
    18    10    42 1   
    19    10    43 1   
    20    10    48 1   
    21    11    12 2   
    22    12    50 1   
    23    13    15 ar  
    24    13    47 1   
    25    14    15 ar  
    26    14    61 1   
    27    15    16 1   
    28    16    17 1   
    29    16    18 1   
    30    16    19 1   
    31    20    21 ar  
    32    20    26 ar  
    33    21    22 ar  
    34    21    58 1   
    35    22    23 ar  
    36    22    59 1   
    37    23    24 1   
    38    23    25 ar  
    39    24    44 1   
    40    24    45 1   
    41    24    57 1   
    42    25    26 ar  
    43    25    27 1   
    44    26    60 1   
    45    27    28 1   
    46    27    40 1   
    47    28    29 ar  
    48    28    33 ar  
    49    29    30 ar  
    50    30    31 ar  
    51    30    55 1   
    52    31    32 ar  
    53    31    56 1   
    54    32    33 ar  
    55    32    34 1   
    56    34    35 ar  
    57    34    39 ar  
    58    35    36 ar  
    59    35    51 1   
    60    36    37 ar  
    61    36    52 1   
    62    37    38 ar  
    63    37    53 1   
    64    38    39 ar  
    65    39    54 1   
@<TRIPOS>SUBSTRUCTURE
     1 NIL         1 TEMP              0 ****  ****    0 ROOT
